data_cubic_CH3NH3PbI3                        
_pd_phase_name cubic_CH3NH3PbI3                        
_cell_length_a  6.2581748916
_cell_length_b  6.2071246609
_cell_length_c  6.3461469077
_cell_angle_alpha  90.0032364669
_cell_angle_beta  89.1691869418
_cell_angle_gamma  89.9942806507
_symmetry_space_group_name_H-M  'P1'
_symmetry_Int_Tables_Number  1
loop_
_symmetry_equiv_pos_site_id
_symmetry_equiv_pos_as_xyz_
  1  x,y,z
loop_
 _atom_site_label
 _atom_site_occupancy
 _atom_site_fract_x
 _atom_site_fract_y
 _atom_site_fract_z
 _atom_site_thermal_displace_type
 _atom_site_B_iso_or_equiv
 _atom_site_type_symbol
1 1.0 0.3929673497 0.4998153072 0.4572014690  Biso 1.0 
2 1.0 0.6095821897 0.5000038520 0.5478548762  Biso 1.0 
3 1.0 0.4080540414 0.4996414455 0.2844101545  Biso 1.0 
4 1.0 0.3076318683 0.6452870193 0.5104486985  Biso 1.0 
5 1.0 0.3077998013 0.3543628574 0.5107169107  Biso 1.0 
6 1.0 0.6969378039 0.6362460979 0.5015853764  Biso 1.0 
7 1.0 0.6970560775 0.3637316731 0.5018319114  Biso 1.0 
8 1.0 0.6079928637 0.5001722605 0.7120132057  Biso 1.0 
9 1.0 0.9443534963 0.9999715704 0.9776631493  Biso 1.0 
10 1.0 0.9091437709 0.9999860864 0.4754156629  Biso 1.0 
11 1.0 0.9010708875 0.4999812458 0.0249181930  Biso 1.0 
12 1.0 0.4331887847 0.9999830366 0.9230744273  Biso 1.0 
